tests/fixtures/ieee14.raw
 0, 100.0,  33, 0, 0, 60.00 / PSS/E-33.0
IEEE 14 Bus Test Case

 1,'',1.0,3,1,1,1,1.000000,0.000000,1.0600,0.9400
 2,'',1.0,2,1,1,1,1.000000,0.000000,1.0600,0.9400
 3,'',1.0,2,1,1,1,1.000000,0.000000,1.0600,0.9400
 4,'',1.0,1,1,1,1,1.000000,0.000000,1.0600,0.9400
 5,'',1.0,1,1,1,1,1.000000,0.000000,1.0600,0.9400
 6,'',1.0,2,1,1,1,1.000000,0.000000,1.0600,0.9400
 7,'',1.0,1,1,1,1,1.000000,0.000000,1.0600,0.9400
 8,'',1.0,2,1,1,1,1.000000,0.000000,1.0600,0.9400
 9,'',1.0,1,1,1,1,1.000000,0.000000,1.0600,0.9400
 10,'',1.0,1,1,1,1,1.000000,0.000000,1.0600,0.9400
 11,'',1.0,1,1,1,1,1.000000,0.000000,1.0600,0.9400
 12,'',1.0,1,1,1,1,1.000000,0.000000,1.0600,0.9400
 13,'',1.0,1,1,1,1,1.000000,0.000000,1.0600,0.9400
 14,'',1.0,1,1,1,1,1.000000,0.000000,1.0600,0.9400
0 / END OF BUS DATA, BEGIN LOAD DATA
 2,'1',1,1,1,21.700000,12.700000,0.0,0.0,0.0,0.0,1,1,0
 3,'1',1,1,1,94.200000,19.000000,0.0,0.0,0.0,0.0,1,1,0
 4,'1',1,1,1,47.800000,-3.900000,0.0,0.0,0.0,0.0,1,1,0
 5,'1',1,1,1,7.600000,1.600000,0.0,0.0,0.0,0.0,1,1,0
 6,'1',1,1,1,11.200000,7.500000,0.0,0.0,0.0,0.0,1,1,0
 9,'1',1,1,1,29.500000,16.600000,0.0,0.0,0.0,0.0,1,1,0
 10,'1',1,1,1,9.000000,5.800000,0.0,0.0,0.0,0.0,1,1,0
 11,'1',1,1,1,3.500000,1.800000,0.0,0.0,0.0,0.0,1,1,0
 12,'1',1,1,1,6.100000,1.600000,0.0,0.0,0.0,0.0,1,1,0
 13,'1',1,1,1,13.500000,5.800000,0.0,0.0,0.0,0.0,1,1,0
 14,'1',1,1,1,14.900000,5.000000,0.0,0.0,0.0,0.0,1,1,0
0 / END OF LOAD DATA, BEGIN FIXED SHUNT DATA
 9,'1',1,0.000000,19.000000
0 / END OF FIXED SHUNT DATA, BEGIN GENERATOR DATA
 1,'1',170.000000,5.000000,10.000000,0.000000,1.000000,0,100.0,0.0,1.0,0.0,0.0,1.0,1,100.0,340.000000,0.000000
 2,'1',29.500000,0.000000,30.000000,-30.000000,1.000000,0,100.0,0.0,1.0,0.0,0.0,1.0,1,100.0,59.000000,0.000000
 3,'1',0.000000,20.000000,40.000000,0.000000,1.000000,0,100.0,0.0,1.0,0.0,0.0,1.0,1,100.0,0.000000,0.000000
 6,'1',0.000000,9.000000,24.000000,-6.000000,1.000000,0,100.0,0.0,1.0,0.0,0.0,1.0,1,100.0,0.000000,0.000000
 8,'1',0.000000,9.000000,24.000000,-6.000000,1.000000,0,100.0,0.0,1.0,0.0,0.0,1.0,1,100.0,0.000000,0.000000
0 / END OF GENERATOR DATA, BEGIN BRANCH DATA
 1,2,'1',0.019380,0.059170,0.052800,472.00,472.00,472.00,0.0,0.0,0.0,0.0,1,0,0.0
 1,5,'1',0.054030,0.223040,0.049200,128.00,128.00,128.00,0.0,0.0,0.0,0.0,1,0,0.0
 2,3,'1',0.046990,0.197970,0.043800,145.00,145.00,145.00,0.0,0.0,0.0,0.0,1,0,0.0
 2,4,'1',0.058110,0.176320,0.034000,158.00,158.00,158.00,0.0,0.0,0.0,0.0,1,0,0.0
 2,5,'1',0.056950,0.173880,0.034600,161.00,161.00,161.00,0.0,0.0,0.0,0.0,1,0,0.0
 3,4,'1',0.067010,0.171030,0.012800,160.00,160.00,160.00,0.0,0.0,0.0,0.0,1,0,0.0
 4,5,'1',0.013350,0.042110,0.000000,664.00,664.00,664.00,0.0,0.0,0.0,0.0,1,0,0.0
 6,11,'1',0.094980,0.198900,0.000000,134.00,134.00,134.00,0.0,0.0,0.0,0.0,1,0,0.0
 6,12,'1',0.122910,0.255810,0.000000,104.00,104.00,104.00,0.0,0.0,0.0,0.0,1,0,0.0
 6,13,'1',0.066150,0.130270,0.000000,201.00,201.00,201.00,0.0,0.0,0.0,0.0,1,0,0.0
 7,8,'1',0.000000,0.176150,0.000000,167.00,167.00,167.00,0.0,0.0,0.0,0.0,1,0,0.0
 7,9,'1',0.000000,0.110010,0.000000,267.00,267.00,267.00,0.0,0.0,0.0,0.0,1,0,0.0
 9,10,'1',0.031810,0.084500,0.000000,325.00,325.00,325.00,0.0,0.0,0.0,0.0,1,0,0.0
 9,14,'1',0.127110,0.270380,0.000000,99.00,99.00,99.00,0.0,0.0,0.0,0.0,1,0,0.0
 10,11,'1',0.082050,0.192070,0.000000,141.00,141.00,141.00,0.0,0.0,0.0,0.0,1,0,0.0
 12,13,'1',0.220920,0.199880,0.000000,99.00,99.00,99.00,0.0,0.0,0.0,0.0,1,0,0.0
 13,14,'1',0.170930,0.348020,0.000000,76.00,76.00,76.00,0.0,0.0,0.0,0.0,1,0,0.0
0 / END OF BRANCH DATA, BEGIN TRANSFORMER DATA
 4,7,0,'1',1,1,1,0.0,0.0,2,'',1,1,1.0,0,1.0,0,0.0,0.0
 0.000000,0.209120,100.0
 0.978000,0.0,0.000000,141.00,0.00,0.00,0,0,1.1,0.9,1.1,0.9,0,0,0.0
 1.000000,0.0
 4,9,0,'1',1,1,1,0.0,0.0,2,'',1,1,1.0,0,1.0,0,0.0,0.0
 0.000000,0.556180,100.0
 0.969000,0.0,0.000000,53.00,0.00,0.00,0,0,1.1,0.9,1.1,0.9,0,0,0.0
 1.000000,0.0
 5,6,0,'1',1,1,1,0.0,0.0,2,'',1,1,1.0,0,1.0,0,0.0,0.0
 0.000000,0.252020,100.0
 0.932000,0.0,0.000000,117.00,0.00,0.00,0,0,1.1,0.9,1.1,0.9,0,0,0.0
 1.000000,0.0
0 / END OF TRANSFORMER DATA
Q
